psse/psse-converter/src/test/resources/IEEE_30_bus_updated_exported.raw
0,100.0,32,0.0,0.0,60.0
 08/20/93 UW ARCHIVE           100.0  1961 W IEEE 30 Bus Test Case

1,'Glen Lyn    ',132.0,3,1,1,1,1.06,98.4316
2,'Claytor     ',132.0,2,1,1,1,1.04313,93.0798
3,'Kumis       ',132.0,1,1,1,1,1.02074,90.8996
4,'Hancock     ',132.0,1,1,1,1,1.01176,89.1475
5,'Fieldale    ',132.0,2,1,1,1,1.01,84.2658
6,'Roanoke     ',132.0,1,1,1,1,1.01026,87.367
7,'Blaine      ',132.0,1,1,1,1,1.00238,85.5665
8,'Reusens     ',132.0,2,1,1,1,1.01,86.6183
9,'Roanoke     ',1.0,1,1,1,1,1.05091,84.3227
10,'Roanoke     ',33.0,1,1,1,1,1.04513,82.732
11,'Roanoke     ',11.0,2,1,1,1,1.082,84.3227
12,'Hancock     ',33.0,1,1,1,1,1.05712,83.4883
13,'Hancock     ',11.0,2,1,1,1,1.071,83.4883
14,'Bus 14      ',33.0,1,1,1,1,1.04228,82.5962
15,'Bus 15      ',33.0,1,1,1,1,1.03768,82.5042
16,'Bus 16      ',33.0,1,1,1,1,1.04439,82.9053
17,'Bus 17      ',33.0,1,1,1,1,1.0399,82.5702
18,'Bus 18      ',33.0,1,1,1,1,1.02815,81.8899
19,'Bus 19      ',33.0,1,1,1,1,1.02565,81.7162
20,'Bus 20      ',33.0,1,1,1,1,1.02974,81.9128
21,'Bus 21      ',33.0,1,1,1,1,1.03273,82.2893
22,'Bus 22      ',33.0,1,1,1,1,1.03326,82.3035
23,'Bus 23      ',33.0,1,1,1,1,1.02718,82.1135
24,'Bus 24      ',33.0,1,1,1,1,1.02158,81.937
25,'Bus 25      ',33.0,1,1,1,1,1.01734,82.3648
26,'Bus 26      ',33.0,1,1,1,1,0.99966,81.9452
27,'Cloverdl    ',33.0,1,1,1,1,1.02325,82.8892
28,'Cloverdl    ',132.0,1,1,1,1,1.00682,86.7432
29,'Bus 29      ',33.0,1,1,1,1,1.00341,81.6593
30,'Bus 30      ',33.0,1,1,1,1,0.99194,80.7765
0 / END OF BUS DATA, BEGIN LOAD DATA
2,'1 ',1,1,1,21.7,12.7,0.0,0.0,0.0,-0.0,1,1
3,'1 ',1,1,1,2.4,1.2,0.0,0.0,0.0,-0.0,1,1
4,'1 ',1,1,1,7.6,1.6,0.0,0.0,0.0,-0.0,1,1
5,'1 ',1,1,1,94.2,19.0,0.0,0.0,0.0,-0.0,1,1
7,'1 ',1,1,1,22.8,10.9,0.0,0.0,0.0,-0.0,1,1
8,'1 ',1,1,1,30.0,30.0,0.0,0.0,0.0,-0.0,1,1
10,'1 ',1,1,1,5.8,2.0,0.0,0.0,0.0,-0.0,1,1
12,'1 ',1,1,1,11.2,7.5,0.0,0.0,0.0,-0.0,1,1
14,'1 ',1,1,1,6.2,1.6,0.0,0.0,0.0,-0.0,1,1
15,'1 ',1,1,1,8.2,2.5,0.0,0.0,0.0,-0.0,1,1
16,'1 ',1,1,1,3.5,1.8,0.0,0.0,0.0,-0.0,1,1
17,'1 ',1,1,1,9.0,5.8,0.0,0.0,0.0,-0.0,1,1
18,'1 ',1,1,1,3.2,0.9,0.0,0.0,0.0,-0.0,1,1
19,'1 ',1,1,1,9.5,3.4,0.0,0.0,0.0,-0.0,1,1
20,'1 ',1,1,1,2.2,0.7,0.0,0.0,0.0,-0.0,1,1
21,'1 ',1,1,1,17.5,11.2,0.0,0.0,0.0,-0.0,1,1
23,'1 ',1,1,1,3.2,1.6,0.0,0.0,0.0,-0.0,1,1
24,'1 ',1,1,1,8.7,6.7,0.0,0.0,0.0,-0.0,1,1
26,'1 ',1,1,1,3.5,2.3,0.0,0.0,0.0,-0.0,1,1
29,'1 ',1,1,1,2.4,0.9,0.0,0.0,0.0,-0.0,1,1
30,'1 ',1,1,1,10.6,1.9,0.0,0.0,0.0,-0.0,1,1
0 / END OF LOAD DATA, BEGIN FIXED SHUNT DATA
10,' 1',1,0.0,19.0
24,' 1',1,0.0,4.3
0 / END OF FIXED SHUNT DATA, BEGIN GENERATOR DATA
1,'1 ',260.948,-16.787,0.0,0.0,1.06,0,100.0,0.0,1.0,0.0,0.0,1.0,1,100.0,10000.0,-10000.0,1,1.0,0,1.0,0,1.0,0,1.0,0,1.0
2,'1 ',40.0,50.0,50.0,-40.0,1.045,0,100.0,0.0,1.0,0.0,0.0,1.0,1,100.0,10000.0,-10000.0,1,1.0,0,1.0,0,1.0,0,1.0,0,1.0
5,'1 ',0.0,36.85,40.0,-40.0,1.01,0,100.0,0.0,1.0,0.0,0.0,1.0,1,100.0,10000.0,-10000.0,1,1.0,0,1.0,0,1.0,0,1.0,0,1.0
8,'1 ',0.0,37.144,40.0,-10.0,1.01,0,100.0,0.0,1.0,0.0,0.0,1.0,1,100.0,10000.0,-10000.0,1,1.0,0,1.0,0,1.0,0,1.0,0,1.0
11,'1 ',0.0,16.172,24.0,-6.0,1.082,0,100.0,0.0,1.0,0.0,0.0,1.0,1,100.0,10000.0,-10000.0,1,1.0,0,1.0,0,1.0,0,1.0,0,1.0
13,'1 ',0.0,10.619,24.0,-6.0,1.071,0,100.0,0.0,1.0,0.0,0.0,1.0,1,100.0,10000.0,-10000.0,1,1.0,0,1.0,0,1.0,0,1.0,0,1.0
0 / END OF GENERATOR DATA, BEGIN BRANCH DATA
1,2,'1 ',0.0192,0.0575,0.0528,130.0,0.0,0.0,0.0,0.0,0.0,0.0,1,1,0.0,1,1.0,0,1.0,0,1.0,0,1.0
1,3,'1 ',0.0452,0.1652,0.0408,130.0,0.0,0.0,0.0,0.0,0.0,0.0,1,1,0.0,1,1.0,0,1.0,0,1.0,0,1.0
2,4,'1 ',0.057,0.1737,0.0368,65.0,0.0,0.0,0.0,0.0,0.0,0.0,1,1,0.0,1,1.0,0,1.0,0,1.0,0,1.0
2,5,'1 ',0.0472,0.1983,0.0418,130.0,0.0,0.0,0.0,0.0,0.0,0.0,1,1,0.0,1,1.0,0,1.0,0,1.0,0,1.0
2,6,'1 ',0.0581,0.1763,0.0374,65.0,0.0,0.0,0.0,0.0,0.0,0.0,1,1,0.0,1,1.0,0,1.0,0,1.0,0,1.0
3,4,'1 ',0.0132,0.0379,0.0084,130.0,0.0,0.0,0.0,0.0,0.0,0.0,1,1,0.0,1,1.0,0,1.0,0,1.0,0,1.0
4,6,'1 ',0.0119,0.0414,0.009,90.0,0.0,0.0,0.0,0.0,0.0,0.0,1,1,0.0,1,1.0,0,1.0,0,1.0,0,1.0
5,7,'1 ',0.046,0.116,0.0204,70.0,0.0,0.0,0.0,0.0,0.0,0.0,1,1,0.0,1,1.0,0,1.0,0,1.0,0,1.0
6,7,'1 ',0.0267,0.082,0.017,130.0,0.0,0.0,0.0,0.0,0.0,0.0,1,1,0.0,1,1.0,0,1.0,0,1.0,0,1.0
6,8,'1 ',0.012,0.042,0.009,32.0,0.0,0.0,0.0,0.0,0.0,0.0,1,1,0.0,1,1.0,0,1.0,0,1.0,0,1.0
6,28,'1 ',0.0169,0.0599,0.013,0.0,0.0,0.0,0.0,0.0,0.0,0.0,1,1,0.0,1,1.0,0,1.0,0,1.0,0,1.0
8,28,'1 ',0.0636,0.2,0.0428,0.0,0.0,0.0,0.0,0.0,0.0,0.0,1,1,0.0,1,1.0,0,1.0,0,1.0,0,1.0
9,10,'1 ',0.0,0.11,0.0,0.0,0.0,0.0,0.0,0.0,0.0,0.0,1,1,0.0,1,1.0,0,1.0,0,1.0,0,1.0
9,11,'1 ',0.0,0.208,0.0,65.0,0.0,0.0,0.0,0.0,0.0,0.0,1,1,0.0,1,1.0,0,1.0,0,1.0,0,1.0
10,17,'1 ',0.0324,0.0845,0.0,0.0,0.0,0.0,0.0,0.0,0.0,0.0,1,1,0.0,1,1.0,0,1.0,0,1.0,0,1.0
10,20,'1 ',0.0936,0.209,0.0,32.0,0.0,0.0,0.0,0.0,0.0,0.0,1,1,0.0,1,1.0,0,1.0,0,1.0,0,1.0
10,21,'1 ',0.0348,0.0749,0.0,0.0,0.0,0.0,0.0,0.0,0.0,0.0,1,1,0.0,1,1.0,0,1.0,0,1.0,0,1.0
10,22,'1 ',0.0727,0.1499,0.0,0.0,0.0,0.0,0.0,0.0,0.0,0.0,1,1,0.0,1,1.0,0,1.0,0,1.0,0,1.0
12,13,'1 ',0.0,0.14,0.0,65.0,0.0,0.0,0.0,0.0,0.0,0.0,1,1,0.0,1,1.0,0,1.0,0,1.0,0,1.0
12,14,'1 ',0.1231,0.2559,0.0,0.0,0.0,0.0,0.0,0.0,0.0,0.0,1,1,0.0,1,1.0,0,1.0,0,1.0,0,1.0
12,15,'1 ',0.0662,0.1304,0.0,32.0,0.0,0.0,0.0,0.0,0.0,0.0,1,1,0.0,1,1.0,0,1.0,0,1.0,0,1.0
12,16,'1 ',0.0945,0.1987,0.0,16.0,0.0,0.0,0.0,0.0,0.0,0.0,1,1,0.0,1,1.0,0,1.0,0,1.0,0,1.0
14,15,'1 ',0.221,0.1997,0.0,16.0,0.0,0.0,0.0,0.0,0.0,0.0,1,1,0.0,1,1.0,0,1.0,0,1.0,0,1.0
15,18,'1 ',0.1073,0.2185,0.0,16.0,0.0,0.0,0.0,0.0,0.0,0.0,1,1,0.0,1,1.0,0,1.0,0,1.0,0,1.0
15,23,'1 ',0.1,0.202,0.0,0.0,0.0,0.0,0.0,0.0,0.0,0.0,1,1,0.0,1,1.0,0,1.0,0,1.0,0,1.0
16,17,'1 ',0.0524,0.1923,0.0,16.0,0.0,0.0,0.0,0.0,0.0,0.0,1,1,0.0,1,1.0,0,1.0,0,1.0,0,1.0
18,19,'1 ',0.0639,0.1292,0.0,16.0,0.0,0.0,0.0,0.0,0.0,0.0,1,1,0.0,1,1.0,0,1.0,0,1.0,0,1.0
19,20,'1 ',0.034,0.068,0.0,16.0,0.0,0.0,0.0,0.0,0.0,0.0,1,1,0.0,1,1.0,0,1.0,0,1.0,0,1.0
21,22,'1 ',0.0116,0.0236,0.0,0.0,0.0,0.0,0.0,0.0,0.0,0.0,1,1,0.0,1,1.0,0,1.0,0,1.0,0,1.0
22,24,'1 ',0.115,0.179,0.0,0.0,0.0,0.0,0.0,0.0,0.0,0.0,1,1,0.0,1,1.0,0,1.0,0,1.0,0,1.0
23,24,'1 ',0.132,0.27,0.0,0.0,0.0,0.0,0.0,0.0,0.0,0.0,1,1,0.0,1,1.0,0,1.0,0,1.0,0,1.0
24,25,'1 ',0.1885,0.3292,0.0,0.0,0.0,0.0,0.0,0.0,0.0,0.0,1,1,0.0,1,1.0,0,1.0,0,1.0,0,1.0
25,26,'1 ',0.2544,0.38,0.0,0.0,0.0,0.0,0.0,0.0,0.0,0.0,1,1,0.0,1,1.0,0,1.0,0,1.0,0,1.0
25,27,'1 ',0.1093,0.2087,0.0,0.0,0.0,0.0,0.0,0.0,0.0,0.0,1,1,0.0,1,1.0,0,1.0,0,1.0,0,1.0
27,29,'1 ',0.2198,0.4153,0.0,0.0,0.0,0.0,0.0,0.0,0.0,0.0,1,1,0.0,1,1.0,0,1.0,0,1.0,0,1.0
27,30,'1 ',0.3202,0.6027,0.0,0.0,0.0,0.0,0.0,0.0,0.0,0.0,1,1,0.0,1,1.0,0,1.0,0,1.0,0,1.0
29,30,'1 ',0.2399,0.4533,0.0,0.0,0.0,0.0,0.0,0.0,0.0,0.0,1,1,0.0,1,1.0,0,1.0,0,1.0,0,1.0
0 / END OF BRANCH DATA, BEGIN TRANSFORMER DATA
4,12,0,'1 ',1,1,1,0.0,0.0,2,'        ',1,1,1.0,0,1.0,0,1.0,0,1.0
0.0,0.256,100.0
0.932,0.0,0.0,65.0,0.0,0.0,0,0,1.5,0.51,1.5,0.51,159,0,0.0,0.0
1.0,0.0
6,9,0,'1 ',1,1,1,0.0,0.0,2,'        ',1,1,1.0,0,1.0,0,1.0,0,1.0
0.0,0.208,100.0
0.978,0.0,0.0,65.0,0.0,0.0,0,0,1.5,0.51,1.5,0.51,159,0,0.0,0.0
1.0,0.0
6,10,0,'1 ',1,1,1,0.0,0.0,2,'        ',1,1,1.0,0,1.0,0,1.0,0,1.0
0.0,0.556,100.0
0.969,0.0,0.0,32.0,0.0,0.0,0,0,1.5,0.51,1.5,0.51,159,0,0.0,0.0
1.0,0.0
28,27,0,'1 ',1,1,1,0.0,0.0,2,'        ',1,1,1.0,0,1.0,0,1.0,0,1.0
0.0,0.396,100.0
0.9679999999999999,0.0,0.0,0.0,0.0,0.0,0,0,1.5,0.51,1.5,0.51,159,0,0.0,0.0
1.0,0.0
0 / END OF TRANSFORMER DATA, BEGIN AREA DATA
1,0,0.0,1.0,'1           '
0 / END OF AREA DATA, BEGIN TWO-TERMINAL DC DATA
0 / END OF TWO-TERMINAL DC DATA, BEGIN VOLTAGE SOURCE CONVERTER DATA
0 / END OF VOLTAGE SOURCE CONVERTER DATA, BEGIN IMPEDANCE CORRECTION DATA
0 / END OF IMPEDANCE CORRECTION DATA, BEGIN MULTI-TERMINAL DC DATA
0 / END OF MULTI-TERMINAL DC DATA, BEGIN MULTI-SECTION LINE DATA
0 / END OF MULTI-SECTION LINE DATA, BEGIN ZONE DATA
1,'IEEE 30 '
0 / END OF ZONE DATA, BEGIN INTER-AREA TRANSFER DATA
0 / END OF INTER-AREA TRANSFER DATA, BEGIN OWNER DATA
1,'1'
0 / END OF OWNER DATA, BEGIN FACTS CONTROL DEVICE DATA
0 / END OF FACTS CONTROL DEVICE DATA, BEGIN SWITCHED SHUNT DATA
0 / END OF SWITCHED SHUNT DATA, BEGIN GNE DEVICE DATA
0 / END OF GNE DEVICE DATA
Q
